Version 4
SHEET 1 1224 1496
WIRE -640 32 -640 16
WIRE -192 176 -224 176
WIRE -48 192 -128 192
WIRE 32 192 -48 192
WIRE -48 208 -48 192
WIRE 32 208 32 192
WIRE -192 240 -224 240
WIRE -672 256 -672 240
WIRE -160 256 -160 240
WIRE 176 384 112 384
WIRE 416 416 320 416
WIRE 592 416 416 416
WIRE 752 416 656 416
WIRE 864 416 752 416
WIRE 1024 416 944 416
WIRE 1136 416 1024 416
WIRE 176 448 -32 448
WIRE 1136 448 1136 416
WIRE 1024 464 1024 416
WIRE -752 480 -752 464
WIRE -176 480 -320 480
WIRE 752 480 752 416
WIRE -176 560 -176 480
WIRE -144 560 -176 560
WIRE -32 560 -32 448
WIRE -32 560 -64 560
WIRE -32 608 -32 560
WIRE 112 608 112 384
WIRE 160 608 112 608
WIRE 416 608 416 416
WIRE 416 608 240 608
WIRE 752 608 752 560
WIRE 1024 608 1024 528
WIRE 1136 608 1136 528
WIRE 1136 608 1024 608
WIRE 1024 624 1024 608
WIRE -784 704 -784 688
WIRE -32 736 -32 688
WIRE 240 1008 176 1008
WIRE -800 1040 -800 1024
WIRE 480 1040 384 1040
WIRE 592 1040 480 1040
WIRE 32 1072 32 1056
WIRE 240 1072 32 1072
WIRE 176 1216 176 1008
WIRE 176 1216 32 1216
WIRE 176 1232 176 1216
WIRE 224 1232 176 1232
WIRE 480 1232 480 1040
WIRE 480 1232 304 1232
WIRE 32 1296 32 1216
WIRE 32 1424 32 1376
FLAG -640 112 0
FLAG -672 336 0
FLAG -672 240 Rect
FLAG -640 16 RCC
FLAG -752 560 0
FLAG -784 784 0
FLAG -784 688 OnOff
FLAG -752 464 Clock
FLAG -800 1120 0
FLAG -800 1024 Wave2Fs
FLAG -688 -160 0
FLAG -688 -240 3v3
FLAG -160 256 0
FLAG -48 288 0
FLAG -224 176 Clock
FLAG -224 240 OnOff
FLAG -48 192 Manch
FLAG -464 -160 0
FLAG -464 -240 8v
FLAG 80 272 0
FLAG 32 256 0
FLAG 80 192 PManch
FLAG 208 336 8v
FLAG 208 496 0
FLAG -32 736 8v
FLAG 752 608 0
FLAG -224 -160 0
FLAG -224 -240 5v
FLAG 1024 624 0
FLAG 272 960 8v
FLAG 272 1120 0
FLAG 32 1424 0
FLAG 592 1040 Vgain
FLAG 32 1056 PManch
FLAG -320 480 Vgain
FLAG 416 416 Vout
SYMBOL Misc\\signal -640 16 R0
WINDOW 123 0 0 Left 0
WINDOW 39 0 0 Left 0
SYMATTR InstName V1
SYMATTR Value PWL file=data_rcc.txt
SYMBOL Misc\\signal -672 240 R0
WINDOW 123 0 0 Left 0
WINDOW 39 0 0 Left 0
SYMATTR InstName V2
SYMATTR Value PWL file=data_rec.txt
SYMBOL Misc\\signal -752 464 R0
WINDOW 123 0 0 Left 0
WINDOW 39 0 0 Left 0
SYMATTR InstName V3
SYMATTR Value PWL file=square_wave.txt
SYMBOL Misc\\signal -784 688 R0
WINDOW 123 0 0 Left 0
WINDOW 39 0 0 Left 0
SYMATTR InstName V4
SYMATTR Value PWL file=on_off.txt
SYMBOL Misc\\signal -800 1024 R0
WINDOW 123 0 0 Left 0
WINDOW 39 0 0 Left 0
SYMATTR InstName V5
SYMATTR Value PWL file=square_wave_2fs.txt
SYMBOL Misc\\battery -688 -256 R0
WINDOW 123 0 0 Left 0
WINDOW 39 0 0 Left 0
SYMATTR InstName V6
SYMATTR Value 3.3
SYMBOL Digital\\xor -144 144 R0
SYMATTR InstName A1
SYMBOL OpAmps\\LT1210 208 416 R0
SYMATTR InstName U1
SYMBOL Misc\\battery -464 -256 R0
WINDOW 123 0 0 Left 0
WINDOW 39 0 0 Left 0
SYMATTR InstName V7
SYMATTR Value 8
SYMBOL res 256 592 R90
WINDOW 0 0 56 VBottom 2
WINDOW 3 32 56 VTop 2
SYMATTR InstName R2
SYMATTR Value 560
SYMBOL e 80 176 R0
SYMATTR InstName E1
SYMATTR Value 3.3
SYMBOL res -48 544 R90
WINDOW 0 0 56 VBottom 2
WINDOW 3 32 56 VTop 2
SYMATTR InstName R3
SYMATTR Value 1k
SYMBOL res -16 704 R180
WINDOW 0 36 76 Left 2
WINDOW 3 36 40 Left 2
SYMATTR InstName R4
SYMATTR Value 1k
SYMBOL cap 656 400 R90
WINDOW 0 0 32 VBottom 2
WINDOW 3 32 32 VTop 2
SYMATTR InstName C1
SYMATTR Value 1.5µ
SYMBOL res 736 464 R0
SYMATTR InstName R5
SYMATTR Value 6.1
SYMBOL Misc\\battery -224 -256 R0
WINDOW 123 0 0 Left 0
WINDOW 39 0 0 Left 0
SYMATTR InstName V8
SYMATTR Value 5
SYMBOL ind 848 432 R270
WINDOW 0 32 56 VTop 2
WINDOW 3 5 56 VBottom 2
SYMATTR InstName L1
SYMATTR Value 50µ
SYMBOL cap 1008 464 R0
SYMATTR InstName C2
SYMATTR Value 6.3µ
SYMBOL ind 1120 432 R0
SYMATTR InstName L2
SYMATTR Value 3.7m
SYMBOL OpAmps\\LT1210 272 1040 R0
SYMATTR InstName U2
SYMBOL res 320 1216 R90
WINDOW 0 0 56 VBottom 2
WINDOW 3 32 56 VTop 2
SYMATTR InstName R1
SYMATTR Value {rg}
SYMBOL res 48 1392 R180
WINDOW 0 36 76 Left 2
WINDOW 3 36 40 Left 2
SYMATTR InstName R6
SYMATTR Value 150
TEXT -824 152 Left 2 !.tran 0 175u 4u
TEXT -304 120 Left 2 ;added manchester modulator with clock signal
TEXT 120 232 Left 2 ;power interface (a buffer with protection, for examlpe)
TEXT 128 680 Left 2 ;simulates the linear buffer of converter
TEXT 192 1304 Left 2 ;simulates the linear buffer of converter
TEXT 184 1456 Left 2 !.step param rg 100 600 100
