Version 4
SHEET 1 1224 1332
WIRE -640 32 -640 16
WIRE -192 176 -224 176
WIRE -48 192 -128 192
WIRE 32 192 -48 192
WIRE -48 208 -48 192
WIRE 32 208 32 192
WIRE -192 240 -224 240
WIRE -672 256 -672 240
WIRE -160 256 -160 240
WIRE 176 384 112 384
WIRE 416 416 320 416
WIRE 592 416 416 416
WIRE 752 416 656 416
WIRE 176 448 -32 448
WIRE -752 480 -752 464
WIRE -176 480 -320 480
WIRE 752 480 752 416
WIRE -176 560 -176 480
WIRE -144 560 -176 560
WIRE -32 560 -32 448
WIRE -32 560 -64 560
WIRE -32 608 -32 560
WIRE 112 608 112 384
WIRE 160 608 112 608
WIRE 416 608 416 416
WIRE 416 608 240 608
WIRE 752 608 752 560
WIRE -784 704 -784 688
WIRE -32 736 -32 688
WIRE 128 1024 80 1024
WIRE 544 1024 496 1024
WIRE -800 1040 -800 1024
WIRE 544 1056 544 1024
WIRE 256 1184 256 1168
FLAG -640 112 0
FLAG -672 336 0
FLAG -672 240 Rect
FLAG -640 16 RCC
FLAG -752 560 0
FLAG -784 784 0
FLAG -784 688 OnOff
FLAG -752 464 Clock
FLAG -800 1120 0
FLAG -800 1024 Wave2Fs
FLAG -688 -160 0
FLAG -688 -240 3v3
FLAG -160 256 0
FLAG -48 288 0
FLAG -224 176 Clock
FLAG -224 240 OnOff
FLAG -48 192 Manch
FLAG -464 -160 0
FLAG -464 -240 8v
FLAG 80 272 0
FLAG 32 256 0
FLAG 80 192 PManch
FLAG 208 336 8v
FLAG 208 496 0
FLAG -32 736 8v
FLAG -320 480 PManch
FLAG 752 608 0
FLAG 256 1184 0
FLAG 544 1136 0
FLAG -224 -160 0
FLAG -224 -240 5v
FLAG 256 880 5v
FLAG 80 1024 OnOff
SYMBOL Misc\\signal -640 16 R0
WINDOW 123 0 0 Left 0
WINDOW 39 0 0 Left 0
SYMATTR InstName V1
SYMATTR Value PWL file=data_rcc.txt
SYMBOL Misc\\signal -672 240 R0
WINDOW 123 0 0 Left 0
WINDOW 39 0 0 Left 0
SYMATTR InstName V2
SYMATTR Value PWL file=data_rec.txt
SYMBOL Misc\\signal -752 464 R0
WINDOW 123 0 0 Left 0
WINDOW 39 0 0 Left 0
SYMATTR InstName V3
SYMATTR Value PWL file=square_wave.txt
SYMBOL Misc\\signal -784 688 R0
WINDOW 123 0 0 Left 0
WINDOW 39 0 0 Left 0
SYMATTR InstName V4
SYMATTR Value PWL file=on_off.txt
SYMBOL Misc\\signal -800 1024 R0
WINDOW 123 0 0 Left 0
WINDOW 39 0 0 Left 0
SYMATTR InstName V5
SYMATTR Value PWL file=square_wave_2fs.txt
SYMBOL Misc\\battery -688 -256 R0
WINDOW 123 0 0 Left 0
WINDOW 39 0 0 Left 0
SYMATTR InstName V6
SYMATTR Value 3.3
SYMBOL Digital\\xor -144 144 R0
SYMATTR InstName A1
SYMBOL res 528 1040 R0
SYMATTR InstName R1
SYMATTR Value 50
SYMBOL OpAmps\\LT1210 208 416 R0
SYMATTR InstName U1
SYMBOL Misc\\battery -464 -256 R0
WINDOW 123 0 0 Left 0
WINDOW 39 0 0 Left 0
SYMATTR InstName V7
SYMATTR Value 8
SYMBOL res 256 592 R90
WINDOW 0 0 56 VBottom 2
WINDOW 3 32 56 VTop 2
SYMATTR InstName R2
SYMATTR Value 560
SYMBOL e 80 176 R0
SYMATTR InstName E1
SYMATTR Value 2
SYMBOL res -48 544 R90
WINDOW 0 0 56 VBottom 2
WINDOW 3 32 56 VTop 2
SYMATTR InstName R3
SYMATTR Value 1k
SYMBOL res -16 704 R180
WINDOW 0 36 76 Left 2
WINDOW 3 36 40 Left 2
SYMATTR InstName R4
SYMATTR Value 1k
SYMBOL cap 656 400 R90
WINDOW 0 0 32 VBottom 2
WINDOW 3 32 32 VTop 2
SYMATTR InstName C1
SYMATTR Value .7µ
SYMBOL res 736 464 R0
SYMATTR InstName R5
SYMATTR Value 50
SYMBOL DAC\\AD5672R 288 1024 R0
SYMATTR InstName U2
SYMBOL Misc\\battery -224 -256 R0
WINDOW 123 0 0 Left 0
WINDOW 39 0 0 Left 0
SYMATTR InstName V8
SYMATTR Value 5
TEXT -824 152 Left 2 !.tran 0 1m 4u
TEXT -304 120 Left 2 ;added manchester modulator with clock signal
TEXT 120 232 Left 2 ;power interface (a buffer with protection, for examlpe)
TEXT 128 680 Left 2 ;simulates the linear buffer of converter
