Version 4
SHEET 1 880 680
WIRE 16 96 -128 96
WIRE 176 96 96 96
WIRE 320 96 240 96
WIRE -128 112 -128 96
WIRE 320 112 320 96
FLAG 320 192 0
FLAG -128 192 0
SYMBOL res 304 96 R0
SYMATTR InstName R1
SYMATTR Value 5
SYMBOL cap 240 80 R90
WINDOW 0 0 32 VBottom 2
WINDOW 3 32 32 VTop 2
SYMATTR InstName C1
SYMATTR Value 10n
SYMBOL ind 0 112 R270
WINDOW 0 32 56 VTop 2
WINDOW 3 5 56 VBottom 2
SYMATTR InstName L1
SYMATTR Value 5µ
SYMBOL Misc\\signal -128 96 R0
WINDOW 123 0 0 Left 0
WINDOW 39 0 0 Left 0
SYMATTR InstName V1
SYMATTR Value SINE(0 10 1K)
TEXT -162 220 Left 2 !.tran 10m
