Version 4
SHEET 1 880 680
WIRE -176 32 -320 32
WIRE -16 32 -96 32
WIRE 128 32 48 32
WIRE -320 48 -320 32
WIRE 128 48 128 32
WIRE -208 320 -352 320
WIRE -48 320 -128 320
WIRE 96 320 16 320
WIRE -352 336 -352 320
WIRE 96 336 96 320
FLAG 128 128 0
FLAG -320 128 0
FLAG 96 416 0
FLAG -352 416 0
SYMBOL res 112 32 R0
SYMATTR InstName R1
SYMATTR Value 50
SYMBOL cap 48 16 R90
WINDOW 0 0 32 VBottom 2
WINDOW 3 32 32 VTop 2
SYMATTR InstName C1
SYMATTR Value 1µ
SYMBOL ind -192 48 R270
WINDOW 0 32 56 VTop 2
WINDOW 3 5 56 VBottom 2
SYMATTR InstName L1
SYMATTR Value 1µ
SYMBOL Misc\\signal -320 32 R0
WINDOW 123 0 0 Left 0
WINDOW 39 0 0 Left 0
SYMATTR InstName V1
SYMATTR Value PWL file=data_rcc.txt
SYMBOL res 80 320 R0
SYMATTR InstName R2
SYMATTR Value 50
SYMBOL cap 16 304 R90
WINDOW 0 0 32 VBottom 2
WINDOW 3 32 32 VTop 2
SYMATTR InstName C2
SYMATTR Value 1µ
SYMBOL ind -224 336 R270
WINDOW 0 32 56 VTop 2
WINDOW 3 5 56 VBottom 2
SYMATTR InstName L2
SYMATTR Value 1µ
SYMBOL Misc\\signal -352 320 R0
WINDOW 123 0 0 Left 0
WINDOW 39 0 0 Left 0
SYMATTR InstName V2
SYMATTR Value PWL file=data_rec.txt
TEXT -352 160 Left 2 !.tran 10m
